<?xml version="1.0" encoding="UTF-8"?>

<!-- generated on 2021年03月11日 星期四 21时22分40秒 by Eclipse SUMO netedit Version v1_8_0+0417-2146391a6d
<configuration xmlns:xsi="http://www.w3.org/2001/XMLSchema-instance" xsi:noNamespaceSchemaLocation="http://sumo.dlr.de/xsd/netconvertConfiguration.xsd">

    <input>
        <sumo-net-file value="/home/ljy/sumo/bin/vehicleGroupInitial.net.xml"/>
    </input>

    <output>
        <output-file value="/home/ljy/sumo/bin/vehicleGroupInitial.net.xml"/>
    </output>

    <processing>
        <geometry.min-radius.fix.railways value="false"/>
        <geometry.max-grade.fix value="false"/>
        <offset.disable-normalization value="true"/>
        <lefthand value="false"/>
    </processing>

    <junctions>
        <no-turnarounds value="true"/>
        <junctions.corner-detail value="5"/>
        <junctions.limit-turn-speed value="5.5"/>
        <rectangular-lane-cut value="false"/>
    </junctions>

    <pedestrian>
        <walkingareas value="false"/>
    </pedestrian>

    <netedit>
        <route-files value="/home/ljy/sumo/bin/vehicleGroupInitial.rou.xml"/>
    </netedit>

    <report>
        <aggregate-warnings value="5"/>
    </report>

</configuration>
-->

<routes xmlns:xsi="http://www.w3.org/2001/XMLSchema-instance" xsi:noNamespaceSchemaLocation="http://sumo.dlr.de/xsd/routes_file.xsd">
    <vType id="DEFAULT_VEHTYPE" maxSpeed="20.00" vClass="passenger"/>
    <trip id="vehicle_2" depart="0.00" departLane="2" from="gneE0" to="gneE1"/>
    <trip id="vehicle_1" depart="10.00" departLane="1" from="gneE0" to="gneE1"/>
    <trip id="vehicle_3" depart="10.00" departLane="3" arrivalLane="3" from="gneE0" to="gneE1"/>
    <trip id="vehicle_0" depart="20.00" from="gneE0" to="gneE1"/>
    <trip id="vehicle_4" depart="20.00" departLane="4" arrivalLane="4" from="gneE0" to="gneE1"/>
    <trip id="vehicle_5" depart="20.00" departLane="3" arrivalLane="3" from="gneE0" to="gneE1"/>
    <trip id="vehicle_6" depart="20.00" departLane="1" from="gneE0" to="gneE1"/>
</routes>
