<?xml version="1.0" encoding="UTF-8"?>

<!-- generated on 2021年01月17日 星期日 15时18分18秒 by Eclipse SUMO netedit Version v1_8_0+0417-2146391a6d
<configuration xmlns:xsi="http://www.w3.org/2001/XMLSchema-instance" xsi:noNamespaceSchemaLocation="http://sumo.dlr.de/xsd/netconvertConfiguration.xsd">

    <input>
        <sumo-net-file value="/home/ljy/sumo/bin/vehicleGroupInitial.net.xml"/>
    </input>

    <output>
        <output-file value="/home/ljy/sumo/bin/vehicleGroupInitial.net.xml"/>
    </output>

    <processing>
        <geometry.min-radius.fix.railways value="false"/>
        <geometry.max-grade.fix value="false"/>
        <offset.disable-normalization value="true"/>
        <lefthand value="false"/>
    </processing>

    <junctions>
        <no-turnarounds value="true"/>
        <junctions.corner-detail value="5"/>
        <junctions.limit-turn-speed value="5.5"/>
        <rectangular-lane-cut value="false"/>
    </junctions>

    <pedestrian>
        <walkingareas value="false"/>
    </pedestrian>

    <netedit>
        <route-files value="/home/ljy/sumo/bin/vehicleGroupInitial.rou.xml"/>
    </netedit>

    <report>
        <aggregate-warnings value="5"/>
    </report>

</configuration>
-->

<net version="1.9" junctionCornerDetail="5" limitTurnSpeed="5.50" xmlns:xsi="http://www.w3.org/2001/XMLSchema-instance" xsi:noNamespaceSchemaLocation="http://sumo.dlr.de/xsd/net_file.xsd">

    <location netOffset="0.00,0.00" convBoundary="0.00,100.00,1000.00,100.00" origBoundary="-10000000000.00,-10000000000.00,10000000000.00,10000000000.00" projParameter="!"/>

    <edge id=":gneJ1_0" function="internal">
        <lane id=":gneJ1_0_0" index="0" speed="13.89" length="0.10" shape="500.00,85.60 500.00,85.60"/>
        <lane id=":gneJ1_0_1" index="1" speed="13.89" length="0.10" shape="500.00,88.80 500.00,88.80"/>
        <lane id=":gneJ1_0_2" index="2" speed="13.89" length="0.10" shape="500.00,92.00 500.00,92.00"/>
        <lane id=":gneJ1_0_3" index="3" speed="13.89" length="0.10" shape="500.00,95.20 500.00,95.20"/>
        <lane id=":gneJ1_0_4" index="4" speed="13.89" length="0.10" shape="500.00,98.40 500.00,98.40"/>
    </edge>

    <edge id="gneE0" from="gneJ0" to="gneJ1" priority="-1">
        <lane id="gneE0_0" index="0" speed="13.89" length="500.00" shape="0.00,85.60 500.00,85.60"/>
        <lane id="gneE0_1" index="1" speed="13.89" length="500.00" shape="0.00,88.80 500.00,88.80"/>
        <lane id="gneE0_2" index="2" speed="13.89" length="500.00" shape="0.00,92.00 500.00,92.00"/>
        <lane id="gneE0_3" index="3" speed="13.89" length="500.00" shape="0.00,95.20 500.00,95.20"/>
        <lane id="gneE0_4" index="4" speed="13.89" length="500.00" shape="0.00,98.40 500.00,98.40"/>
    </edge>
    <edge id="gneE1" from="gneJ1" to="gneJ2" priority="-1">
        <lane id="gneE1_0" index="0" speed="13.89" length="500.00" shape="500.00,85.60 1000.00,85.60"/>
        <lane id="gneE1_1" index="1" speed="13.89" length="500.00" shape="500.00,88.80 1000.00,88.80"/>
        <lane id="gneE1_2" index="2" speed="13.89" length="500.00" shape="500.00,92.00 1000.00,92.00"/>
        <lane id="gneE1_3" index="3" speed="13.89" length="500.00" shape="500.00,95.20 1000.00,95.20"/>
        <lane id="gneE1_4" index="4" speed="13.89" length="500.00" shape="500.00,98.40 1000.00,98.40"/>
    </edge>

    <junction id="gneJ0" type="dead_end" x="0.00" y="100.00" incLanes="" intLanes="" shape="0.00,100.00 0.00,84.00"/>
    <junction id="gneJ1" type="priority" x="500.00" y="100.00" incLanes="gneE0_0 gneE0_1 gneE0_2 gneE0_3 gneE0_4" intLanes=":gneJ1_0_0 :gneJ1_0_1 :gneJ1_0_2 :gneJ1_0_3 :gneJ1_0_4" shape="500.00,100.00 500.00,84.00 500.00,100.00">
        <request index="0" response="00000" foes="00000" cont="0"/>
        <request index="1" response="00000" foes="00000" cont="0"/>
        <request index="2" response="00000" foes="00000" cont="0"/>
        <request index="3" response="00000" foes="00000" cont="0"/>
        <request index="4" response="00000" foes="00000" cont="0"/>
    </junction>
    <junction id="gneJ2" type="dead_end" x="1000.00" y="100.00" incLanes="gneE1_0 gneE1_1 gneE1_2 gneE1_3 gneE1_4" intLanes="" shape="1000.00,84.00 1000.00,100.00"/>

    <connection from="gneE0" to="gneE1" fromLane="0" toLane="0" via=":gneJ1_0_0" dir="s" state="M"/>
    <connection from="gneE0" to="gneE1" fromLane="1" toLane="1" via=":gneJ1_0_1" dir="s" state="M"/>
    <connection from="gneE0" to="gneE1" fromLane="2" toLane="2" via=":gneJ1_0_2" dir="s" state="M"/>
    <connection from="gneE0" to="gneE1" fromLane="3" toLane="3" via=":gneJ1_0_3" dir="s" state="M"/>
    <connection from="gneE0" to="gneE1" fromLane="4" toLane="4" via=":gneJ1_0_4" dir="s" state="M"/>

    <connection from=":gneJ1_0" to="gneE1" fromLane="0" toLane="0" dir="s" state="M"/>
    <connection from=":gneJ1_0" to="gneE1" fromLane="1" toLane="1" dir="s" state="M"/>
    <connection from=":gneJ1_0" to="gneE1" fromLane="2" toLane="2" dir="s" state="M"/>
    <connection from=":gneJ1_0" to="gneE1" fromLane="3" toLane="3" dir="s" state="M"/>
    <connection from=":gneJ1_0" to="gneE1" fromLane="4" toLane="4" dir="s" state="M"/>

</net>
