<?xml version="1.0" encoding="UTF-8"?>

<!-- generated on 2021年03月07日 星期日 16时23分16秒 by Eclipse SUMO netedit Version 1.8.0
<configuration xmlns:xsi="http://www.w3.org/2001/XMLSchema-instance" xsi:noNamespaceSchemaLocation="http://sumo.dlr.de/xsd/netconvertConfiguration.xsd">

    <input>
        <sumo-net-file value="/home/lk/Documents/workspace/scratch/ns3-vehicle-group-simulation/sumofiles/avoidObstacle/avoidObstacle.net.xml"/>
    </input>

    <output>
        <output-file value="/home/lk/Documents/workspace/scratch/ns3-vehicle-group-simulation/sumofiles/avoidObstacle/avoidObstacle.net.xml"/>
    </output>

    <processing>
        <geometry.min-radius.fix.railways value="false"/>
        <geometry.max-grade.fix value="false"/>
        <offset.disable-normalization value="true"/>
        <lefthand value="false"/>
    </processing>

    <junctions>
        <no-turnarounds value="true"/>
        <junctions.corner-detail value="5"/>
        <junctions.limit-turn-speed value="5.5"/>
        <rectangular-lane-cut value="false"/>
    </junctions>

    <pedestrian>
        <walkingareas value="false"/>
    </pedestrian>

    <netedit>
        <route-files value="/home/lk/Documents/workspace/scratch/ns3-vehicle-group-simulation/sumofiles/avoidObstacle/avoidObstacle.rou.xml"/>
    </netedit>

    <report>
        <aggregate-warnings value="5"/>
    </report>

</configuration>
-->

<routes xmlns:xsi="http://www.w3.org/2001/XMLSchema-instance" xsi:noNamespaceSchemaLocation="http://sumo.dlr.de/xsd/routes_file.xsd">
    <trip id="vehicle_0" depart="0.00" departLane="0" departSpeed="5.00" arrivalLane="0" arrivalSpeed="0.00" from="e01" to="gneE2"/>
    <trip id="vehicle_1" depart="0.00" departLane="2" departPos="20.00" departSpeed="5.00" arrivalLane="2" arrivalSpeed="0.00" color="blue" from="e01" to="gneE2"/>
    <trip id="vehicle_2" depart="0.00" departLane="1" departPos="40.00" departSpeed="5.00" arrivalLane="1" arrivalSpeed="0.00" from="e01" to="gneE2"/>
    <trip id="vehicle_3" depart="0.00" departLane="1" departPos="20.00" departSpeed="5.00" arrivalLane="1" arrivalSpeed="0.00" color="blue" from="e01" to="gneE2"/>
    <trip id="vehicle_4" depart="0.00" departLane="0" departPos="20.00" departSpeed="5.00" arrivalLane="0" arrivalSpeed="0.00" from="e01" to="gneE2"/>
    <trip id="vehicle_5" depart="0.00" departLane="2" departPos="40.00" departSpeed="5.00" arrivalLane="2" arrivalSpeed="0.00" color="blue" from="e01" to="gneE2"/>
</routes>
